out_measurements_balanced/models_topology/case_topology_corrected_924118181633.m
function mpc = case_topology_corrected_924118181633
mpc.version = '2';
mpc.baseMVA = 100;

mpc.bus = [
    1 3 0 0 0 0 1 1.06 0 135 1 2 0 0 0 0 0 0;
    2 2 21.7 12.7 0 0 1 1.045 -7.72035574273 135 1 2 0 0 0 0 0 0;
    3 2 94.2 19 0 0 1 1.01 -16.8825922689 135 1 2 0 0 0 0 0 0;
    4 1 47.8 -3.9 0 0 1 1.02236013581 -15.9079845993 135 1 2 0 0 0 0 0 0;
    5 1 7.6 1.6 0 0 1 1.02496731175 -15.3000503498 135 1 2 0 0 0 0 0 0;
    6 2 11.2 7.5 0 0 1 1.07 -20.8149306218 0.208 1 2 0 0 0 0 0 0;
    7 1 0 0 0 0 1 1.05302699907 -19.2110792837 14 1 2 0 0 0 0 0 0;
    8 2 0 0 0 0 1 1.09 -19.2110792837 12 1 2 0 0 0 0 0 0;
    9 1 29.5 16.6 0 19 1 1.04742109661 -20.9064434267 0.208 1 2 0 0 0 0 0 0;
    10 1 9 5.8 0 0 1 1.04402358714 -21.1740210888 0.208 1 2 0 0 0 0 0 0;
    11 1 3.5 1.8 0 0 1 1.05344801408 -21.1176419261 0.208 1 2 0 0 0 0 0 0;
    12 1 6.1 1.6 0 0 1 1.05446166737 -21.6329602213 0.208 1 2 0 0 0 0 0 0;
    13 1 13.5 5.8 0 0 1 1.04921973549 -21.661191038 0.208 1 2 0 0 0 0 0 0;
    14 1 14.9 5 0 0 1 1.0301423628 -22.2444869628 0.208 1 2 0 0 0 0 0 0;
];

mpc.gen = [
    1 0 0 0 0 1.06 1 1 1000000000 -1000000000 0 0 0 0 0 0 0 0 0 0 0 0 0 0 0 1;
    2 40 0 1000000000 -1000000000 1.045 nan 1 1000000000 -1000000000 0 0 0 0 0 0 0 0 0 0 0 0 0 0 0 0;
    3 0 0 2000000000 -2000000000 1.01 nan 1 2000000000 -2000000000 0 0 0 0 0 0 0 0 0 0 0 0 0 0 0 0;
    6 0 0 1000000000 -1000000000 1.07 nan 1 1000000000 -1000000000 0 0 0 0 0 0 0 0 0 0 0 0 0 0 0 0;
    8 0 0 1000000000 -1000000000 1.09 nan 1 1000000000 -1000000000 0 0 0 0 0 0 0 0 0 0 0 0 0 0 0 0;
];

mpc.branch = [
    1 2 0.01938 0.05917 0.0528 100 0 0 0 0 1 -360 360 0 0 0 0 0 0 0 0 0;
    2 3 0.04699 0.19797 0.0438 100 0 0 0 0 1 -360 360 0 0 0 0 0 0 0 0 0;
    2 4 0.05811 0.17632 0.034 100 0 0 0 0 1 -360 360 0 0 0 0 0 0 0 0 0;
    2 5 0.05695 0.17388 0.0346 100 0 0 0 0 1 -360 360 0 0 0 0 0 0 0 0 0;
    3 4 0.06701 0.17103 0.0128 100 0 0 0 0 1 -360 360 0 0 0 0 0 0 0 0 0;
    4 5 0.01335 0.04211 0 100 0 0 0 0 1 -360 360 0 0 0 0 0 0 0 0 0;
    4 7 0 0.20912 -0 100 0 0 0 0 1 -360 360 0 0 0 0 0 0 0 0 0;
    4 9 0 0.55618 -0 100 0 0 0 0 1 -360 360 0 0 0 0 0 0 0 0 0;
    5 6 0 0.25202 -0 100 0 0 0 0 1 -360 360 0 0 0 0 0 0 0 0 0;
    6 11 0.09498 0.1989 0 100 0 0 0 0 1 -360 360 0 0 0 0 0 0 0 0 0;
    6 12 0.12291 0.25581 0 100 0 0 0 0 1 -360 360 0 0 0 0 0 0 0 0 0;
    6 13 0.06615 0.13027 0 100 0 0 0 0 1 -360 360 0 0 0 0 0 0 0 0 0;
    7 8 0 0.17615 -0 100 0 0 0 0 1 -360 360 0 0 0 0 0 0 0 0 0;
    7 9 0 0.11001 -0 100 0 0 0 0 1 -360 360 0 0 0 0 0 0 0 0 0;
    9 10 0.03181 0.0845 0 100 0 0 0 0 1 -360 360 0 0 0 0 0 0 0 0 0;
    9 14 0.12711 0.27038 0 100 0 0 0 0 1 -360 360 0 0 0 0 0 0 0 0 0;
    10 11 0.08205 0.19207 0 100 0 0 0 0 1 -360 360 0 0 0 0 0 0 0 0 0;
    12 13 0.22092 0.19988 0 100 0 0 0 0 1 -360 360 0 0 0 0 0 0 0 0 0;
    13 14 0.17093 0.34802 0 100 0 0 0 0 1 -360 360 0 0 0 0 0 0 0 0 0;
];

